# Part executed when called from kernel build system:
ifneq ($(KERNELRELEASE),)
obj-m += fan_module.o


# Part executed when called from standard make in module source directory:
else
include ../../kernel_settings
PWD := $(shell pwd)

all:
	$(MAKE) -C $(KDIR) M=$(PWD) ARCH=$(CPU) CROSS_COMPILE=$(TOOLS) modules

clean:
	$(MAKE) -C $(KDIR) M=$(PWD) clean

install:
	$(MAKE) -C $(KDIR) M=$(PWD) INSTALL_MOD_PATH=$(MODPATH) modules_install

endif

